*SPEF "ieee 1481-1999"
*DESIGN "magnitude_comparator_8bit"
*DATE "13:34:43 Saturday March 08, 2025"
*VENDOR "The OpenROAD Project"
*PROGRAM "OpenROAD"
*VERSION "v2.0-16524-g4cc9d2133"
*DESIGN_FLOW "NAME_SCOPE LOCAL" "PIN_CAP NONE"
*DIVIDER /
*DELIMITER :
*BUS_DELIMITER []
*T_UNIT 1 NS
*C_UNIT 1 PF
*R_UNIT 1 OHM
*L_UNIT 1 HENRY

*NAME_MAP
*1 A[0]
*2 A[1]
*3 A[2]
*4 A[3]
*5 A[4]
*6 A[5]
*7 A[6]
*8 A[7]
*9 A_equal
*10 A_greater
*11 A_less
*12 B[0]
*13 B[1]
*14 B[2]
*15 B[3]
*16 B[4]
*17 B[5]
*18 B[6]
*19 B[7]
*20 _00_
*21 _01_
*22 _02_
*23 _03_
*24 _04_
*25 _05_
*26 _06_
*27 _07_
*28 _08_
*29 _09_
*30 _10_
*31 _11_
*32 _12_
*33 _13_
*34 _14_
*35 _15_
*36 _16_
*37 _17_
*38 _18_
*39 _19_
*40 _20_
*41 _21_
*42 _22_
*43 _23_
*44 _24_
*47 net1
*48 net2
*49 net3
*50 net4
*51 net5
*52 net6
*53 net7
*54 net8
*55 net9
*56 net10
*57 net11
*58 net12
*59 net13
*60 net14
*61 net15
*62 net16
*63 net17
*64 net18
*65 net19
*66 _25_
*67 _26_
*68 _27_
*69 _28_
*70 _29_
*71 _30_
*72 _31_
*73 _32_
*74 _33_
*75 _34_
*76 _35_
*77 _36_
*78 _37_
*79 _38_
*80 _39_
*81 _40_
*82 _41_
*83 _42_
*84 _43_
*85 _44_
*86 _45_
*87 _46_
*88 _47_
*89 _48_
*90 _49_
*91 _50_
*92 _51_
*93 _52_
*94 TAP_TAPCELL_ROW_0_0
*95 TAP_TAPCELL_ROW_0_1
*96 TAP_TAPCELL_ROW_0_2
*97 TAP_TAPCELL_ROW_1_3
*98 TAP_TAPCELL_ROW_2_4
*99 TAP_TAPCELL_ROW_2_5
*100 TAP_TAPCELL_ROW_3_6
*101 TAP_TAPCELL_ROW_4_7
*102 TAP_TAPCELL_ROW_4_8
*103 TAP_TAPCELL_ROW_5_9
*104 TAP_TAPCELL_ROW_6_10
*105 TAP_TAPCELL_ROW_6_11
*106 TAP_TAPCELL_ROW_7_12
*107 TAP_TAPCELL_ROW_8_13
*108 TAP_TAPCELL_ROW_8_14
*109 TAP_TAPCELL_ROW_9_15
*110 TAP_TAPCELL_ROW_10_16
*111 TAP_TAPCELL_ROW_10_17
*112 TAP_TAPCELL_ROW_11_18
*113 TAP_TAPCELL_ROW_12_19
*114 TAP_TAPCELL_ROW_12_20
*115 TAP_TAPCELL_ROW_13_21
*116 TAP_TAPCELL_ROW_14_22
*117 TAP_TAPCELL_ROW_14_23
*118 TAP_TAPCELL_ROW_15_24
*119 TAP_TAPCELL_ROW_15_25
*120 TAP_TAPCELL_ROW_15_26
*121 input1
*122 input2
*123 input3
*124 input4
*125 input5
*126 input6
*127 input7
*128 input8
*129 input9
*130 input10
*131 input11
*132 input12
*133 input13
*134 input14
*135 input15
*136 input16
*137 output17
*138 output18
*139 output19
*140 FILLER_0_0
*141 FILLER_0_8
*142 FILLER_0_16
*143 FILLER_0_24
*144 FILLER_0_28
*145 FILLER_0_31
*146 FILLER_0_52
*147 FILLER_0_59
*148 FILLER_0_61
*149 FILLER_0_65
*150 FILLER_0_67
*151 FILLER_0_74
*152 FILLER_0_82
*153 FILLER_0_91
*154 FILLER_0_95
*155 FILLER_1_0
*156 FILLER_1_8
*157 FILLER_1_16
*158 FILLER_1_24
*159 FILLER_1_32
*160 FILLER_1_40
*161 FILLER_1_44
*162 FILLER_1_61
*163 FILLER_1_69
*164 FILLER_1_80
*165 FILLER_1_88
*166 FILLER_1_96
*167 FILLER_2_0
*168 FILLER_2_8
*169 FILLER_2_16
*170 FILLER_2_24
*171 FILLER_2_28
*172 FILLER_2_31
*173 FILLER_2_39
*174 FILLER_2_41
*175 FILLER_2_65
*176 FILLER_2_69
*177 FILLER_2_79
*178 FILLER_2_87
*179 FILLER_2_89
*180 FILLER_2_91
*181 FILLER_2_95
*182 FILLER_3_0
*183 FILLER_3_8
*184 FILLER_3_16
*185 FILLER_3_24
*186 FILLER_3_32
*187 FILLER_3_40
*188 FILLER_3_48
*189 FILLER_3_56
*190 FILLER_3_61
*191 FILLER_3_69
*192 FILLER_3_82
*193 FILLER_3_90
*194 FILLER_3_94
*195 FILLER_3_96
*196 FILLER_4_0
*197 FILLER_4_8
*198 FILLER_4_16
*199 FILLER_4_24
*200 FILLER_4_28
*201 FILLER_4_31
*202 FILLER_4_39
*203 FILLER_4_47
*204 FILLER_4_55
*205 FILLER_4_63
*206 FILLER_4_71
*207 FILLER_4_85
*208 FILLER_4_89
*209 FILLER_4_91
*210 FILLER_4_95
*211 FILLER_5_0
*212 FILLER_5_8
*213 FILLER_5_16
*214 FILLER_5_24
*215 FILLER_5_32
*216 FILLER_5_40
*217 FILLER_5_48
*218 FILLER_5_56
*219 FILLER_5_61
*220 FILLER_5_69
*221 FILLER_5_77
*222 FILLER_5_94
*223 FILLER_5_96
*224 FILLER_6_0
*225 FILLER_6_8
*226 FILLER_6_16
*227 FILLER_6_24
*228 FILLER_6_28
*229 FILLER_6_31
*230 FILLER_6_39
*231 FILLER_6_47
*232 FILLER_6_55
*233 FILLER_6_63
*234 FILLER_6_71
*235 FILLER_6_79
*236 FILLER_6_87
*237 FILLER_6_89
*238 FILLER_6_91
*239 FILLER_6_95
*240 FILLER_7_0
*241 FILLER_7_8
*242 FILLER_7_16
*243 FILLER_7_20
*244 FILLER_7_28
*245 FILLER_7_33
*246 FILLER_7_41
*247 FILLER_7_49
*248 FILLER_7_57
*249 FILLER_7_59
*250 FILLER_7_61
*251 FILLER_7_69
*252 FILLER_7_77
*253 FILLER_7_81
*254 FILLER_7_90
*255 FILLER_8_19
*256 FILLER_8_23
*257 FILLER_8_29
*258 FILLER_8_31
*259 FILLER_8_42
*260 FILLER_8_50
*261 FILLER_8_58
*262 FILLER_8_66
*263 FILLER_8_74
*264 FILLER_8_76
*265 FILLER_8_91
*266 FILLER_8_93
*267 FILLER_9_0
*268 FILLER_9_8
*269 FILLER_9_21
*270 FILLER_9_29
*271 FILLER_9_37
*272 FILLER_9_45
*273 FILLER_9_53
*274 FILLER_9_57
*275 FILLER_9_59
*276 FILLER_9_61
*277 FILLER_9_69
*278 FILLER_9_77
*279 FILLER_9_85
*280 FILLER_9_93
*281 FILLER_10_3
*282 FILLER_10_7
*283 FILLER_10_15
*284 FILLER_10_23
*285 FILLER_10_27
*286 FILLER_10_29
*287 FILLER_10_31
*288 FILLER_10_39
*289 FILLER_10_47
*290 FILLER_10_55
*291 FILLER_10_63
*292 FILLER_10_71
*293 FILLER_10_79
*294 FILLER_10_87
*295 FILLER_10_89
*296 FILLER_10_91
*297 FILLER_10_95
*298 FILLER_11_3
*299 FILLER_11_17
*300 FILLER_11_25
*301 FILLER_11_38
*302 FILLER_11_46
*303 FILLER_11_54
*304 FILLER_11_58
*305 FILLER_11_61
*306 FILLER_11_69
*307 FILLER_11_77
*308 FILLER_11_85
*309 FILLER_11_93
*310 FILLER_12_0
*311 FILLER_12_8
*312 FILLER_12_16
*313 FILLER_12_24
*314 FILLER_12_28
*315 FILLER_12_38
*316 FILLER_12_46
*317 FILLER_12_54
*318 FILLER_12_62
*319 FILLER_12_70
*320 FILLER_12_78
*321 FILLER_12_86
*322 FILLER_12_91
*323 FILLER_12_95
*324 FILLER_13_0
*325 FILLER_13_8
*326 FILLER_13_16
*327 FILLER_13_24
*328 FILLER_13_35
*329 FILLER_13_43
*330 FILLER_13_51
*331 FILLER_13_59
*332 FILLER_13_61
*333 FILLER_13_69
*334 FILLER_13_77
*335 FILLER_13_85
*336 FILLER_13_93
*337 FILLER_14_0
*338 FILLER_14_8
*339 FILLER_14_16
*340 FILLER_14_24
*341 FILLER_14_28
*342 FILLER_14_31
*343 FILLER_14_39
*344 FILLER_14_47
*345 FILLER_14_55
*346 FILLER_14_63
*347 FILLER_14_71
*348 FILLER_14_79
*349 FILLER_14_87
*350 FILLER_14_89
*351 FILLER_14_91
*352 FILLER_14_95
*353 FILLER_15_0
*354 FILLER_15_8
*355 FILLER_15_16
*356 FILLER_15_24
*357 FILLER_15_28
*358 FILLER_15_31
*359 FILLER_15_39
*360 FILLER_15_47
*361 FILLER_15_55
*362 FILLER_15_59
*363 FILLER_15_61
*364 FILLER_15_69
*365 FILLER_15_77
*366 FILLER_15_85
*367 FILLER_15_89
*368 FILLER_15_91
*369 FILLER_15_95

*PORTS
A[0] I
A[1] I
A[2] I
A[3] I
A[4] I
A[5] I
A[6] I
A[7] I
A_equal O
A_greater O
A_less O
B[0] I
B[1] I
B[2] I
B[3] I
B[4] I
B[5] I
B[6] I
B[7] I

*D_NET *1 0.000898749
*CONN
*P A[0] I
*I *121:A I *D sky130_fd_sc_hd__clkbuf_2
*CAP
1 A[0] 0.000379142
2 *121:A 0.000379142
3 *121:A *81:A_N 0
4 *121:A *122:A 0
5 *121:A *129:A 9.24224e-05
6 *121:A *132:A 4.80417e-05
7 *121:A *47:10 0
*RES
1 A[0] *121:A 22.6629 
*END

*D_NET *2 0.000363963
*CONN
*P A[1] I
*I *122:A I *D sky130_fd_sc_hd__clkbuf_1
*CAP
1 A[1] 0.000122927
2 *122:A 0.000122927
3 *122:A *74:A 0
4 *122:A *130:A 0.000118109
5 *121:A *122:A 0
*RES
1 A[1] *122:A 18.2809 
*END

*D_NET *3 0.000649191
*CONN
*P A[2] I
*I *123:A I *D sky130_fd_sc_hd__clkbuf_1
*CAP
1 A[2] 0.000238498
2 *123:A 0.000238498
3 *123:A *131:A 0.000172196
*RES
1 A[2] *123:A 20.9944 
*END

*D_NET *4 0.00126886
*CONN
*P A[3] I
*I *124:A I *D sky130_fd_sc_hd__clkbuf_1
*CAP
1 A[3] 0.000384847
2 *124:A 0.000384847
3 *124:A *132:A 0.00027223
4 *124:A *47:10 0.000171288
5 *124:A *50:8 5.56461e-05
*RES
1 A[3] *124:A 24.5941 
*END

*D_NET *5 0.000723018
*CONN
*P A[4] I
*I *125:A I *D sky130_fd_sc_hd__clkbuf_2
*CAP
1 A[4] 0.000219074
2 *125:A 0.000219074
3 *125:A *133:A 0.000174971
4 *125:A *134:A 0.000109899
*RES
1 A[4] *125:A 20.7213 
*END

*D_NET *6 0.000902835
*CONN
*P A[5] I
*I *126:A I *D sky130_fd_sc_hd__clkbuf_1
*CAP
1 A[5] 0.000220331
2 *126:A 0.000220331
3 *126:A *134:A 0.000451448
4 *126:A *59:8 1.07248e-05
*RES
1 A[5] *126:A 21.6912 
*END

*D_NET *7 0.000659086
*CONN
*P A[6] I
*I *127:A I *D sky130_fd_sc_hd__clkbuf_1
*CAP
1 A[6] 0.000240321
2 *127:A 0.000240321
3 *127:A *135:A 0.000178444
*RES
1 A[6] *127:A 20.7455 
*END

*D_NET *8 0.000771229
*CONN
*P A[7] I
*I *128:A I *D sky130_fd_sc_hd__clkbuf_1
*CAP
1 A[7] 0.000266485
2 *128:A 0.000266485
3 *128:A A_equal 0
4 *128:A A_greater 0
5 *128:A *136:A 0.000170398
6 *128:A *62:10 6.78596e-05
*RES
1 A[7] *128:A 20.9768 
*END

*D_NET *9 0.00153094
*CONN
*P A_equal O
*I *137:X O *D sky130_fd_sc_hd__clkbuf_1
*CAP
1 A_equal 0.000706069
2 *137:X 0.000706069
3 A_equal A_less 0.000118802
4 *128:A A_equal 0
*RES
1 *137:X A_equal 19.1851 
*END

*D_NET *10 0.000364075
*CONN
*P A_greater O
*I *138:X O *D sky130_fd_sc_hd__clkbuf_1
*CAP
1 A_greater 0.000109354
2 *138:X 0.000109354
3 A_greater A_less 0.000128751
4 A_greater *92:A2 2.1558e-06
5 A_greater *93:B1 1.44611e-05
6 *128:A A_greater 0
*RES
1 *138:X A_greater 18.3001 
*END

*D_NET *11 0.000365536
*CONN
*P A_less O
*I *139:X O *D sky130_fd_sc_hd__clkbuf_1
*CAP
1 A_less 5.37038e-05
2 *139:X 5.37038e-05
3 A_less *93:B1 1.05746e-05
4 A_equal A_less 0.000118802
5 A_greater A_less 0.000128751
*RES
1 *139:X A_less 17.8848 
*END

*D_NET *12 0.000315869
*CONN
*P B[0] I
*I *129:A I *D sky130_fd_sc_hd__buf_6
*CAP
1 B[0] 6.53995e-05
2 *129:A 6.53995e-05
3 *129:A *132:A 9.26472e-05
4 *121:A *129:A 9.24224e-05
*RES
1 B[0] *129:A 18.2045 
*END

*D_NET *13 0.000410791
*CONN
*P B[1] I
*I *130:A I *D sky130_fd_sc_hd__clkbuf_1
*CAP
1 B[1] 0.000133692
2 *130:A 0.000133692
3 *130:A *80:A 2.52987e-05
4 *122:A *130:A 0.000118109
*RES
1 B[1] *130:A 19.1114 
*END

*D_NET *14 0.000578215
*CONN
*P B[2] I
*I *131:A I *D sky130_fd_sc_hd__clkbuf_1
*CAP
1 B[2] 0.00020301
2 *131:A 0.00020301
3 *123:A *131:A 0.000172196
*RES
1 B[2] *131:A 20.271 
*END

*D_NET *15 0.00152937
*CONN
*P B[3] I
*I *132:A I *D sky130_fd_sc_hd__clkbuf_1
*CAP
1 B[3] 0.000353219
2 *132:A 0.000353219
3 *132:A *72:A 0.000102003
4 *132:A *75:B 0.000178502
5 *132:A *47:10 8.79081e-06
6 *132:A *55:6 6.50727e-05
7 *132:A *58:8 5.56461e-05
8 *121:A *132:A 4.80417e-05
9 *124:A *132:A 0.00027223
10 *129:A *132:A 9.26472e-05
*RES
1 B[3] *132:A 25.2022 
*END

*D_NET *16 0.000507268
*CONN
*P B[4] I
*I *133:A I *D sky130_fd_sc_hd__buf_6
*CAP
1 B[4] 0.000166148
2 *133:A 0.000166148
3 *125:A *133:A 0.000174971
*RES
1 B[4] *133:A 18.9182 
*END

*D_NET *17 0.0013113
*CONN
*P B[5] I
*I *134:A I *D sky130_fd_sc_hd__clkbuf_1
*CAP
1 B[5] 0.000294347
2 *134:A 0.000294347
3 *134:A *52:14 0.000128091
4 *134:A *59:8 3.31733e-05
5 *125:A *134:A 0.000109899
6 *126:A *134:A 0.000451448
*RES
1 B[5] *134:A 25.4582 
*END

*D_NET *18 0.00059522
*CONN
*P B[6] I
*I *135:A I *D sky130_fd_sc_hd__clkbuf_1
*CAP
1 B[6] 0.000208388
2 *135:A 0.000208388
3 *127:A *135:A 0.000178444
*RES
1 B[6] *135:A 20.0274 
*END

*D_NET *19 0.000373647
*CONN
*P B[7] I
*I *136:A I *D sky130_fd_sc_hd__clkbuf_1
*CAP
1 B[7] 0.000101624
2 *136:A 0.000101624
3 *128:A *136:A 0.000170398
*RES
1 B[7] *136:A 17.9613 
*END

*D_NET *20 0.00185097
*CONN
*I *70:A I *D sky130_fd_sc_hd__nand4_1
*I *66:Y O *D sky130_fd_sc_hd__xnor2_1
*CAP
1 *70:A 0.000925485
2 *66:Y 0.000925485
*RES
1 *66:Y *70:A 48.7709 
*END

*D_NET *21 0.000665239
*CONN
*I *70:B I *D sky130_fd_sc_hd__nand4_1
*I *67:Y O *D sky130_fd_sc_hd__xnor2_1
*CAP
1 *70:B 0.000243241
2 *67:Y 0.000243241
3 *70:B *70:C 0.000148144
4 *70:B *70:D 2.5386e-05
5 *70:B *90:C 0
6 *70:B *91:B 0
7 *70:B *24:8 5.22654e-06
*RES
1 *67:Y *70:B 34.3133 
*END

*D_NET *22 0.00194318
*CONN
*I *70:C I *D sky130_fd_sc_hd__nand4_1
*I *68:Y O *D sky130_fd_sc_hd__xnor2_1
*CAP
1 *70:C 0.00055735
2 *68:Y 0.00055735
3 *70:C *70:D 1.07248e-05
4 *70:C *90:B 0.000600345
5 *70:C *91:B 6.92705e-05
6 *70:B *70:C 0.000148144
*RES
1 *68:Y *70:C 38.6486 
*END

*D_NET *23 0.000584073
*CONN
*I *70:D I *D sky130_fd_sc_hd__nand4_1
*I *69:Y O *D sky130_fd_sc_hd__xnor2_1
*CAP
1 *70:D 0.000237986
2 *69:Y 0.000237986
3 *70:D *69:B 7.19887e-05
4 *70:D *24:8 0
5 *70:B *70:D 2.5386e-05
6 *70:C *70:D 1.07248e-05
*RES
1 *69:Y *70:D 32.1327 
*END

*D_NET *24 0.00160055
*CONN
*I *76:A I *D sky130_fd_sc_hd__nor2_1
*I *77:A I *D sky130_fd_sc_hd__inv_1
*I *70:Y O *D sky130_fd_sc_hd__nand4_1
*CAP
1 *76:A 0.000157684
2 *77:A 6.74094e-05
3 *70:Y 0.000483443
4 *24:8 0.000708536
5 *76:A *92:A2 0
6 *76:A *93:A3 3.4475e-05
7 *24:8 *91:B 0.000143773
8 *24:8 *44:14 0
9 *70:B *24:8 5.22654e-06
10 *70:D *24:8 0
*RES
1 *70:Y *24:8 26.3777 
2 *24:8 *77:A 15.2381 
3 *24:8 *76:A 17.7307 
*END

*D_NET *25 0.00202187
*CONN
*I *75:A I *D sky130_fd_sc_hd__nand4_1
*I *71:Y O *D sky130_fd_sc_hd__xnor2_1
*CAP
1 *75:A 0.000840786
2 *71:Y 0.000840786
3 *75:A *71:B 2.85274e-05
4 *75:A *75:D 0
5 *75:A *83:A 6.96846e-05
6 *75:A *83:C 2.56232e-05
7 *75:A *58:8 0.000216458
*RES
1 *71:Y *75:A 45.0406 
*END

*D_NET *26 0.00080067
*CONN
*I *75:B I *D sky130_fd_sc_hd__nand4_1
*I *72:Y O *D sky130_fd_sc_hd__xnor2_1
*CAP
1 *75:B 0.000254568
2 *72:Y 0.000254568
3 *75:B *58:8 0.000113033
4 *132:A *75:B 0.000178502
*RES
1 *72:Y *75:B 25.9252 
*END

*D_NET *27 0.000403085
*CONN
*I *75:C I *D sky130_fd_sc_hd__nand4_1
*I *73:Y O *D sky130_fd_sc_hd__xnor2_1
*CAP
1 *75:C 0.000141062
2 *73:Y 0.000141062
3 *75:C *73:A 0.000120962
4 *75:C *84:C 0
*RES
1 *73:Y *75:C 30.193 
*END

*D_NET *28 0.00128989
*CONN
*I *75:D I *D sky130_fd_sc_hd__nand4_1
*I *74:Y O *D sky130_fd_sc_hd__xnor2_1
*CAP
1 *75:D 0.000644946
2 *74:Y 0.000644946
3 *75:D *84:C 0
4 *75:A *75:D 0
*RES
1 *74:Y *75:D 39.1976 
*END

*D_NET *29 0.00497468
*CONN
*I *93:A2 I *D sky130_fd_sc_hd__a31o_1
*I *76:B I *D sky130_fd_sc_hd__nor2_1
*I *75:Y O *D sky130_fd_sc_hd__nand4_1
*CAP
1 *93:A2 0.000124645
2 *76:B 2.87501e-05
3 *75:Y 0.00192156
4 *29:8 0.00207495
5 *76:B *137:A 1.09551e-05
6 *93:A2 *93:A1 1.05106e-05
7 *93:A2 *137:A 1.84293e-05
8 *93:A2 *139:A 0.000171899
9 *93:A2 *37:6 3.76847e-05
10 *29:8 *137:A 1.00937e-05
11 *29:8 *37:6 0.000140721
12 *29:8 *58:8 0.000424484
*RES
1 *75:Y *29:8 39.3906 
2 *29:8 *76:B 10.2378 
3 *29:8 *93:A2 13.7342 
*END

*D_NET *30 0.000640345
*CONN
*I *92:A1 I *D sky130_fd_sc_hd__a21oi_1
*I *93:A3 I *D sky130_fd_sc_hd__a31o_1
*I *77:Y O *D sky130_fd_sc_hd__inv_1
*CAP
1 *92:A1 0.000105064
2 *93:A3 9.67405e-05
3 *77:Y 3.30351e-05
4 *30:6 0.000234839
5 *92:A1 *93:B1 0.000117376
6 *92:A1 *44:14 1.37669e-05
7 *30:6 *44:14 5.04829e-06
8 *76:A *93:A3 3.4475e-05
*RES
1 *77:Y *30:6 9.69524 
2 *30:6 *93:A3 20.4964 
3 *30:6 *92:A1 11.0817 
*END

*D_NET *31 0.000578862
*CONN
*I *84:C I *D sky130_fd_sc_hd__maj3_2
*I *78:Y O *D sky130_fd_sc_hd__inv_1
*CAP
1 *84:C 0.000152624
2 *78:Y 0.000152624
3 *84:C *73:A 0.000273614
4 *75:C *84:C 0
5 *75:D *84:C 0
*RES
1 *78:Y *84:C 31.3008 
*END

*D_NET *32 0.000782208
*CONN
*I *83:C I *D sky130_fd_sc_hd__maj3_2
*I *79:Y O *D sky130_fd_sc_hd__inv_1
*CAP
1 *83:C 0.000207892
2 *79:Y 0.000207892
3 *83:C *71:B 5.19205e-05
4 *83:C *79:A 6.37652e-06
5 *83:C *83:A 0.00012568
6 *83:C *57:8 0.000156823
7 *75:A *83:C 2.56232e-05
*RES
1 *79:Y *83:C 33.9289 
*END

*D_NET *33 0.000218233
*CONN
*I *82:C I *D sky130_fd_sc_hd__maj3_2
*I *80:Y O *D sky130_fd_sc_hd__inv_1
*CAP
1 *82:C 3.46508e-05
2 *80:Y 3.46508e-05
3 *82:C *56:6 0.000148932
*RES
1 *80:Y *82:C 20.0536 
*END

*D_NET *34 0.000838115
*CONN
*I *82:B I *D sky130_fd_sc_hd__maj3_2
*I *81:Y O *D sky130_fd_sc_hd__nand2b_4
*CAP
1 *82:B 0.000290925
2 *81:Y 0.000290925
3 *82:B *74:A 8.07794e-05
4 *82:B *80:A 0
5 *82:B *81:B 0.000175485
*RES
1 *81:Y *82:B 35.7307 
*END

*D_NET *35 0.00105215
*CONN
*I *83:B I *D sky130_fd_sc_hd__maj3_2
*I *82:X O *D sky130_fd_sc_hd__maj3_2
*CAP
1 *83:B 0.000482433
2 *82:X 0.000482433
3 *83:B *83:A 8.72887e-05
*RES
1 *82:X *83:B 29.8074 
*END

*D_NET *36 0.000914688
*CONN
*I *84:B I *D sky130_fd_sc_hd__maj3_2
*I *83:X O *D sky130_fd_sc_hd__maj3_2
*CAP
1 *84:B 0.000454731
2 *83:X 0.000454731
3 *84:B *73:A 5.22654e-06
*RES
1 *83:X *84:B 37.5282 
*END

*D_NET *37 0.00470363
*CONN
*I *92:A2 I *D sky130_fd_sc_hd__a21oi_1
*I *93:A1 I *D sky130_fd_sc_hd__a31o_1
*I *84:X O *D sky130_fd_sc_hd__maj3_2
*CAP
1 *92:A2 0.000242117
2 *93:A1 3.4979e-05
3 *84:X 0.00171494
4 *37:6 0.00199204
5 *92:A2 *93:B1 0.000281397
6 *92:A2 *138:A 0.000118796
7 *92:A2 *139:A 2.95424e-06
8 *37:6 *137:A 0.000122378
9 *37:6 *139:A 2.95424e-06
10 A_greater *92:A2 2.1558e-06
11 *76:A *92:A2 0
12 *93:A2 *93:A1 1.05106e-05
13 *93:A2 *37:6 3.76847e-05
14 *29:8 *37:6 0.000140721
*RES
1 *84:X *37:6 35.4843 
2 *37:6 *93:A1 10.2378 
3 *37:6 *92:A2 24.1616 
*END

*D_NET *38 0.000329411
*CONN
*I *91:C I *D sky130_fd_sc_hd__maj3_2
*I *85:Y O *D sky130_fd_sc_hd__inv_1
*CAP
1 *91:C 9.63282e-05
2 *85:Y 9.63282e-05
3 *91:C *91:B 0.000126335
4 *91:C *54:12 1.04194e-05
*RES
1 *85:Y *91:C 30.1916 
*END

*D_NET *39 0.000322856
*CONN
*I *90:C I *D sky130_fd_sc_hd__maj3_2
*I *86:Y O *D sky130_fd_sc_hd__inv_1
*CAP
1 *90:C 0.000126617
2 *86:Y 0.000126617
3 *90:C *67:A 4.27168e-05
4 *90:C *90:A 2.69064e-05
5 *70:B *90:C 0
*RES
1 *86:Y *90:C 30.1916 
*END

*D_NET *40 0.000635918
*CONN
*I *89:C I *D sky130_fd_sc_hd__maj3_2
*I *87:Y O *D sky130_fd_sc_hd__inv_1
*CAP
1 *89:C 0.000217064
2 *87:Y 0.000217064
3 *89:C *68:B 0
4 *89:C *87:A 2.37263e-05
5 *89:C *88:B_N 2.65667e-05
6 *89:C *89:B 5.39608e-05
7 *89:C *60:10 9.75356e-05
*RES
1 *87:Y *89:C 32.2707 
*END

*D_NET *41 0.000470734
*CONN
*I *89:B I *D sky130_fd_sc_hd__maj3_2
*I *88:Y O *D sky130_fd_sc_hd__nor2b_4
*CAP
1 *89:B 0.000144357
2 *88:Y 0.000144357
3 *89:B *66:A 0
4 *89:B *88:B_N 0.000122378
5 *89:B *60:10 5.68225e-06
6 *89:C *89:B 5.39608e-05
*RES
1 *88:Y *89:B 31.4388 
*END

*D_NET *42 0.00136094
*CONN
*I *90:B I *D sky130_fd_sc_hd__maj3_2
*I *89:X O *D sky130_fd_sc_hd__maj3_2
*CAP
1 *90:B 0.000326636
2 *89:X 0.000326636
3 *90:B *68:A 4.95105e-05
4 *90:B *89:A 2.41274e-06
5 *90:B *90:A 5.5404e-05
6 *70:C *90:B 0.000600345
*RES
1 *89:X *90:B 29.6386 
*END

*D_NET *43 0.00130282
*CONN
*I *91:B I *D sky130_fd_sc_hd__maj3_2
*I *90:X O *D sky130_fd_sc_hd__maj3_2
*CAP
1 *91:B 0.000481718
2 *90:X 0.000481718
3 *70:B *91:B 0
4 *70:C *91:B 6.92705e-05
5 *91:C *91:B 0.000126335
6 *24:8 *91:B 0.000143773
*RES
1 *90:X *91:B 40.7165 
*END

*D_NET *44 0.00185308
*CONN
*I *93:B1 I *D sky130_fd_sc_hd__a31o_1
*I *92:B1 I *D sky130_fd_sc_hd__a21oi_1
*I *91:X O *D sky130_fd_sc_hd__maj3_2
*CAP
1 *93:B1 0.000259798
2 *92:B1 0
3 *91:X 0.000333617
4 *44:14 0.000593415
5 *93:B1 *138:A 8.6001e-05
6 *93:B1 *139:A 5.56851e-05
7 *44:14 *138:A 1.55025e-05
8 *44:14 *62:10 6.64392e-05
9 A_greater *93:B1 1.44611e-05
10 A_less *93:B1 1.05746e-05
11 *92:A1 *93:B1 0.000117376
12 *92:A1 *44:14 1.37669e-05
13 *92:A2 *93:B1 0.000281397
14 *24:8 *44:14 0
15 *30:6 *44:14 5.04829e-06
*RES
1 *91:X *44:14 25.6805 
2 *44:14 *92:B1 9.24915 
3 *44:14 *93:B1 27.374 
*END

*D_NET *47 0.00155853
*CONN
*I *81:B I *D sky130_fd_sc_hd__nand2b_4
*I *72:B I *D sky130_fd_sc_hd__xnor2_1
*I *121:X O *D sky130_fd_sc_hd__clkbuf_2
*CAP
1 *81:B 0.000213155
2 *72:B 4.38142e-05
3 *121:X 0.000260631
4 *47:10 0.0005176
5 *72:B *72:A 6.50586e-05
6 *81:B *81:A_N 7.55529e-05
7 *47:10 *81:A_N 2.71542e-05
8 *82:B *81:B 0.000175485
9 *121:A *47:10 0
10 *124:A *47:10 0.000171288
11 *132:A *47:10 8.79081e-06
*RES
1 *121:X *47:10 19.6294 
2 *47:10 *72:B 15.0513 
3 *47:10 *81:B 20.3233 
*END

*D_NET *48 0.000854066
*CONN
*I *74:B I *D sky130_fd_sc_hd__xnor2_1
*I *80:A I *D sky130_fd_sc_hd__inv_1
*I *122:X O *D sky130_fd_sc_hd__clkbuf_1
*CAP
1 *74:B 0.000126352
2 *80:A 0.000145453
3 *122:X 0.000136769
4 *48:6 0.000408573
5 *80:A *74:A 0
6 *80:A *56:6 1.16216e-05
7 *82:B *80:A 0
8 *130:A *80:A 2.52987e-05
*RES
1 *122:X *48:6 12.191 
2 *48:6 *80:A 21.7067 
3 *48:6 *74:B 12.2151 
*END

*D_NET *49 0.000839084
*CONN
*I *79:A I *D sky130_fd_sc_hd__inv_1
*I *71:B I *D sky130_fd_sc_hd__xnor2_1
*I *123:X O *D sky130_fd_sc_hd__clkbuf_1
*CAP
1 *79:A 9.83592e-05
2 *71:B 0.000169961
3 *123:X 7.94391e-05
4 *49:8 0.000347759
5 *71:B *57:8 2.352e-05
6 *49:8 *57:8 3.32213e-05
7 *75:A *71:B 2.85274e-05
8 *83:C *71:B 5.19205e-05
9 *83:C *79:A 6.37652e-06
*RES
1 *123:X *49:8 15.9964 
2 *49:8 *71:B 18.5201 
3 *49:8 *79:A 15.7325 
*END

*D_NET *50 0.000975691
*CONN
*I *78:A I *D sky130_fd_sc_hd__inv_1
*I *73:B I *D sky130_fd_sc_hd__xnor2_1
*I *124:X O *D sky130_fd_sc_hd__clkbuf_1
*CAP
1 *78:A 0.000138568
2 *73:B 0
3 *124:X 0.000130773
4 *50:8 0.000269342
5 *78:A *73:A 0.000381361
6 *124:A *50:8 5.56461e-05
*RES
1 *124:X *50:8 12.7697 
2 *50:8 *73:B 9.24915 
3 *50:8 *78:A 14.8133 
*END

*D_NET *51 0.00087209
*CONN
*I *66:B I *D sky130_fd_sc_hd__xnor2_1
*I *88:A I *D sky130_fd_sc_hd__nor2b_4
*I *125:X O *D sky130_fd_sc_hd__clkbuf_2
*CAP
1 *66:B 0.000181902
2 *88:A 0.000127429
3 *125:X 0.000126714
4 *51:8 0.000436045
5 *66:B *66:A 0
6 *51:8 *59:8 0
*RES
1 *125:X *51:8 16.8269 
2 *51:8 *88:A 16.691 
3 *51:8 *66:B 17.9655 
*END

*D_NET *52 0.00146041
*CONN
*I *68:B I *D sky130_fd_sc_hd__xnor2_1
*I *87:A I *D sky130_fd_sc_hd__inv_1
*I *126:X O *D sky130_fd_sc_hd__clkbuf_1
*CAP
1 *68:B 0.000139364
2 *87:A 3.75166e-05
3 *126:X 0.00045295
4 *52:14 0.000629831
5 *68:B *60:10 3.51249e-05
6 *52:14 *60:10 1.38068e-05
7 *52:14 *61:8 0
8 *89:C *68:B 0
9 *89:C *87:A 2.37263e-05
10 *134:A *52:14 0.000128091
*RES
1 *126:X *52:14 22.4829 
2 *52:14 *87:A 14.6232 
3 *52:14 *68:B 17.2421 
*END

*D_NET *53 0.000577342
*CONN
*I *67:B I *D sky130_fd_sc_hd__xnor2_1
*I *86:A I *D sky130_fd_sc_hd__inv_1
*I *127:X O *D sky130_fd_sc_hd__clkbuf_1
*CAP
1 *67:B 7.06733e-05
2 *86:A 0
3 *127:X 9.65306e-05
4 *53:10 0.000167204
5 *67:B *67:A 0.000194919
6 *53:10 *61:8 4.80148e-05
*RES
1 *127:X *53:10 20.9116 
2 *53:10 *86:A 9.24915 
3 *53:10 *67:B 11.8112 
*END

*D_NET *54 0.00084763
*CONN
*I *85:A I *D sky130_fd_sc_hd__inv_1
*I *69:B I *D sky130_fd_sc_hd__xnor2_1
*I *128:X O *D sky130_fd_sc_hd__clkbuf_1
*CAP
1 *85:A 0
2 *69:B 0.000122164
3 *128:X 0.000260447
4 *54:12 0.000382611
5 *70:D *69:B 7.19887e-05
6 *91:C *54:12 1.04194e-05
*RES
1 *128:X *54:12 24.0042 
2 *54:12 *69:B 12.619 
3 *54:12 *85:A 9.24915 
*END

*D_NET *55 0.000797784
*CONN
*I *72:A I *D sky130_fd_sc_hd__xnor2_1
*I *81:A_N I *D sky130_fd_sc_hd__nand2b_4
*I *129:X O *D sky130_fd_sc_hd__buf_6
*CAP
1 *72:A 2.44215e-05
2 *81:A_N 0.000162161
3 *129:X 4.4889e-05
4 *55:6 0.000231472
5 *72:B *72:A 6.50586e-05
6 *81:B *81:A_N 7.55529e-05
7 *121:A *81:A_N 0
8 *132:A *72:A 0.000102003
9 *132:A *55:6 6.50727e-05
10 *47:10 *81:A_N 2.71542e-05
*RES
1 *129:X *55:6 10.5271 
2 *55:6 *81:A_N 22.8808 
3 *55:6 *72:A 10.5271 
*END

*D_NET *56 0.0010252
*CONN
*I *82:A I *D sky130_fd_sc_hd__maj3_2
*I *74:A I *D sky130_fd_sc_hd__xnor2_1
*I *130:X O *D sky130_fd_sc_hd__clkbuf_1
*CAP
1 *82:A 3.5247e-05
2 *74:A 0.000109529
3 *130:X 0.000247158
4 *56:6 0.000391934
5 *80:A *74:A 0
6 *80:A *56:6 1.16216e-05
7 *82:B *74:A 8.07794e-05
8 *82:C *56:6 0.000148932
9 *122:A *74:A 0
*RES
1 *130:X *56:6 14.964 
2 *56:6 *74:A 21.3269 
3 *56:6 *82:A 10.2378 
*END

*D_NET *57 0.00115438
*CONN
*I *71:A I *D sky130_fd_sc_hd__xnor2_1
*I *83:A I *D sky130_fd_sc_hd__maj3_2
*I *131:X O *D sky130_fd_sc_hd__clkbuf_1
*CAP
1 *71:A 0
2 *83:A 0.000143878
3 *131:X 0.000185204
4 *57:8 0.000329082
5 *71:B *57:8 2.352e-05
6 *75:A *83:A 6.96846e-05
7 *83:B *83:A 8.72887e-05
8 *83:C *83:A 0.00012568
9 *83:C *57:8 0.000156823
10 *49:8 *57:8 3.32213e-05
*RES
1 *131:X *57:8 19.7337 
2 *57:8 *83:A 18.4318 
3 *57:8 *71:A 13.7491 
*END

*D_NET *58 0.00286193
*CONN
*I *84:A I *D sky130_fd_sc_hd__maj3_2
*I *73:A I *D sky130_fd_sc_hd__xnor2_1
*I *132:X O *D sky130_fd_sc_hd__clkbuf_1
*CAP
1 *84:A 0
2 *73:A 0.000289158
3 *132:X 0.000346415
4 *58:8 0.000635573
5 *75:A *58:8 0.000216458
6 *75:B *58:8 0.000113033
7 *75:C *73:A 0.000120962
8 *78:A *73:A 0.000381361
9 *84:B *73:A 5.22654e-06
10 *84:C *73:A 0.000273614
11 *132:A *58:8 5.56461e-05
12 *29:8 *58:8 0.000424484
*RES
1 *132:X *58:8 20.944 
2 *58:8 *73:A 28.3144 
3 *58:8 *84:A 9.24915 
*END

*D_NET *59 0.00129973
*CONN
*I *66:A I *D sky130_fd_sc_hd__xnor2_1
*I *88:B_N I *D sky130_fd_sc_hd__nor2b_4
*I *133:X O *D sky130_fd_sc_hd__buf_6
*CAP
1 *66:A 0.000229228
2 *88:B_N 0.00016723
3 *133:X 0.000156984
4 *59:8 0.000553443
5 *66:A *60:10 0
6 *59:8 *60:10 0
7 *66:B *66:A 0
8 *89:B *66:A 0
9 *89:B *88:B_N 0.000122378
10 *89:C *88:B_N 2.65667e-05
11 *126:A *59:8 1.07248e-05
12 *134:A *59:8 3.31733e-05
13 *51:8 *59:8 0
*RES
1 *133:X *59:8 17.6574 
2 *59:8 *88:B_N 18.3548 
3 *59:8 *66:A 19.2141 
*END

*D_NET *60 0.00114961
*CONN
*I *68:A I *D sky130_fd_sc_hd__xnor2_1
*I *89:A I *D sky130_fd_sc_hd__maj3_2
*I *134:X O *D sky130_fd_sc_hd__clkbuf_1
*CAP
1 *68:A 0.000119703
2 *89:A 0.00014942
3 *134:X 0.000203645
4 *60:10 0.000472768
5 *66:A *60:10 0
6 *68:B *60:10 3.51249e-05
7 *89:B *60:10 5.68225e-06
8 *89:C *60:10 9.75356e-05
9 *90:B *68:A 4.95105e-05
10 *90:B *89:A 2.41274e-06
11 *52:14 *60:10 1.38068e-05
12 *59:8 *60:10 0
*RES
1 *134:X *60:10 23.8184 
2 *60:10 *89:A 12.2151 
3 *60:10 *68:A 12.2151 
*END

*D_NET *61 0.00136023
*CONN
*I *90:A I *D sky130_fd_sc_hd__maj3_2
*I *67:A I *D sky130_fd_sc_hd__xnor2_1
*I *135:X O *D sky130_fd_sc_hd__clkbuf_1
*CAP
1 *90:A 0.00021259
2 *67:A 0.000167944
3 *135:X 0.000115601
4 *61:8 0.000496135
5 *67:B *67:A 0.000194919
6 *90:B *90:A 5.5404e-05
7 *90:C *67:A 4.27168e-05
8 *90:C *90:A 2.69064e-05
9 *52:14 *61:8 0
10 *53:10 *61:8 4.80148e-05
*RES
1 *135:X *61:8 16.8269 
2 *61:8 *67:A 18.3789 
3 *61:8 *90:A 18.9623 
*END

*D_NET *62 0.0012473
*CONN
*I *91:A I *D sky130_fd_sc_hd__maj3_2
*I *69:A I *D sky130_fd_sc_hd__xnor2_1
*I *136:X O *D sky130_fd_sc_hd__clkbuf_1
*CAP
1 *91:A 0
2 *69:A 0.000293061
3 *136:X 0.000263442
4 *62:10 0.000556503
5 *128:A *62:10 6.78596e-05
6 *44:14 *62:10 6.64392e-05
*RES
1 *136:X *62:10 15.5668 
2 *62:10 *69:A 25.0992 
3 *62:10 *91:A 9.24915 
*END

*D_NET *63 0.000229913
*CONN
*I *137:A I *D sky130_fd_sc_hd__clkbuf_1
*I *76:Y O *D sky130_fd_sc_hd__nor2_1
*CAP
1 *137:A 3.40287e-05
2 *76:Y 3.40287e-05
3 *76:B *137:A 1.09551e-05
4 *93:A2 *137:A 1.84293e-05
5 *29:8 *137:A 1.00937e-05
6 *37:6 *137:A 0.000122378
*RES
1 *76:Y *137:A 20.355 
*END

*D_NET *64 0.000680657
*CONN
*I *138:A I *D sky130_fd_sc_hd__clkbuf_1
*I *92:Y O *D sky130_fd_sc_hd__a21oi_1
*CAP
1 *138:A 0.000230179
2 *92:Y 0.000230179
3 *92:A2 *138:A 0.000118796
4 *93:B1 *138:A 8.6001e-05
5 *44:14 *138:A 1.55025e-05
*RES
1 *92:Y *138:A 25.3706 
*END

*D_NET *65 0.00127924
*CONN
*I *139:A I *D sky130_fd_sc_hd__clkbuf_1
*I *93:X O *D sky130_fd_sc_hd__a31o_1
*CAP
1 *139:A 0.000522872
2 *93:X 0.000522872
3 *92:A2 *139:A 2.95424e-06
4 *93:A2 *139:A 0.000171899
5 *93:B1 *139:A 5.56851e-05
6 *37:6 *139:A 2.95424e-06
*RES
1 *93:X *139:A 27.2755 
*END
